Version 4
SHEET 1 2524 1488
WIRE -1088 -512 -1088 -560
WIRE 1056 -480 576 -480
WIRE 1072 -480 1056 -480
WIRE 1504 -480 1072 -480
WIRE 1936 -480 1504 -480
WIRE 1936 -448 1936 -480
WIRE -432 -432 -464 -432
WIRE -240 -432 -352 -432
WIRE -112 -432 -240 -432
WIRE 896 -432 832 -432
WIRE 1328 -432 896 -432
WIRE 1744 -432 1328 -432
WIRE -112 -416 -112 -432
WIRE -1088 -400 -1088 -432
WIRE 736 -384 688 -384
WIRE 832 -384 832 -432
WIRE 832 -384 800 -384
WIRE 1056 -384 1056 -480
WIRE 1504 -384 1504 -480
WIRE -240 -368 -240 -432
WIRE 688 -352 688 -384
WIRE 1936 -352 1936 -368
WIRE 2064 -352 1936 -352
WIRE 576 -336 576 -480
WIRE -112 -320 -112 -352
WIRE 1744 -304 1744 -432
WIRE 1776 -304 1744 -304
WIRE 1872 -304 1856 -304
WIRE 1056 -288 1056 -304
WIRE 1184 -288 1056 -288
WIRE 1504 -288 1504 -304
WIRE 1632 -288 1504 -288
WIRE -336 -256 -432 -256
WIRE -240 -256 -240 -288
WIRE -240 -256 -272 -256
WIRE 576 -240 576 -256
WIRE 720 -240 576 -240
WIRE 832 -240 832 -384
WIRE 896 -240 832 -240
WIRE 992 -240 976 -240
WIRE 1328 -240 1328 -432
WIRE 1344 -240 1328 -240
WIRE 1440 -240 1424 -240
WIRE -432 -224 -432 -256
WIRE 320 -192 320 -224
WIRE 416 -192 320 -192
WIRE 512 -192 496 -192
WIRE -240 -176 -240 -256
WIRE -128 -176 -240 -176
WIRE 176 -176 -128 -176
WIRE 320 -176 320 -192
WIRE 320 -176 240 -176
WIRE -240 -160 -240 -176
WIRE 320 -96 320 -176
WIRE 576 -96 576 -144
WIRE 1056 -96 1056 -192
WIRE 1056 -96 576 -96
WIRE 1504 -96 1504 -192
WIRE 1504 -96 1056 -96
WIRE 1936 -96 1936 -256
WIRE 1936 -96 1504 -96
WIRE 1952 -96 1936 -96
WIRE -128 -48 -128 -176
WIRE 1952 -32 1952 -96
WIRE 880 16 448 16
WIRE 1072 16 880 16
WIRE 1328 16 1072 16
WIRE 1760 16 1328 16
WIRE -336 32 -336 -112
WIRE 320 48 320 -16
WIRE -1200 80 -1280 80
WIRE -880 80 -1120 80
WIRE -656 80 -800 80
WIRE -608 80 -656 80
WIRE -496 80 -608 80
WIRE -400 80 -416 80
WIRE -128 80 -128 32
WIRE -80 80 -128 80
WIRE 752 80 640 80
WIRE 1072 80 752 80
WIRE 1520 80 1072 80
WIRE 1952 80 1520 80
WIRE 144 96 128 96
WIRE 176 96 144 96
WIRE 640 112 640 80
WIRE 1952 112 1952 80
WIRE 32 128 -16 128
WIRE 128 128 128 96
WIRE 128 128 112 128
WIRE 176 128 176 96
WIRE 1072 128 1072 80
WIRE 1520 128 1520 80
WIRE -1280 144 -1280 80
WIRE -704 144 -752 144
WIRE -608 144 -608 80
WIRE -608 144 -640 144
WIRE -752 176 -752 144
WIRE -336 176 -336 128
WIRE 320 176 320 128
WIRE -80 208 -80 176
WIRE 640 208 640 192
WIRE 768 208 640 208
WIRE 1952 208 1952 192
WIRE 2080 208 1952 208
WIRE 176 224 176 192
WIRE 1072 224 1072 208
WIRE 1200 224 1072 224
WIRE 1520 224 1520 208
WIRE 1648 224 1520 224
WIRE 448 256 448 16
WIRE 480 256 448 256
WIRE 576 256 560 256
WIRE 1760 256 1760 16
WIRE 1792 256 1760 256
WIRE 1888 256 1872 256
WIRE -1280 272 -1280 224
WIRE 880 272 880 16
WIRE 912 272 880 272
WIRE 1008 272 992 272
WIRE 1328 272 1328 16
WIRE 1360 272 1328 272
WIRE 1456 272 1440 272
WIRE -336 336 -336 256
WIRE -224 336 -336 336
WIRE -80 336 -80 288
WIRE -80 336 -224 336
WIRE 352 368 304 368
WIRE 448 368 448 256
WIRE 448 368 416 368
WIRE 304 400 304 368
WIRE -336 432 -336 336
WIRE 640 448 640 304
WIRE 1072 448 1072 320
WIRE 1072 448 640 448
WIRE 1328 448 1328 432
WIRE 1328 448 1072 448
WIRE 1520 448 1520 320
WIRE 1520 448 1328 448
WIRE 1952 448 1952 304
WIRE 1952 448 1520 448
WIRE 1968 448 1952 448
WIRE -768 464 -800 464
WIRE -608 464 -608 144
WIRE 128 464 128 128
WIRE 1968 496 1968 448
WIRE -1200 592 -1280 592
WIRE -880 592 -1120 592
WIRE 128 592 128 544
WIRE 128 592 -800 592
WIRE -608 640 -608 544
WIRE -1280 656 -1280 592
WIRE 128 656 128 592
WIRE 1008 752 1008 736
WIRE 1360 752 1360 736
WIRE 1776 752 1776 736
WIRE -608 768 -608 720
WIRE -48 768 -608 768
WIRE 128 768 128 736
WIRE 128 768 -48 768
WIRE 656 768 656 736
WIRE 1168 768 1168 736
WIRE -1280 784 -1280 736
WIRE 480 784 480 736
WIRE 816 784 816 736
WIRE 1568 784 1568 736
WIRE -48 816 -48 768
WIRE -48 944 -48 896
WIRE 432 944 432 912
WIRE -336 976 -336 512
WIRE -336 976 -496 976
WIRE 1360 1024 1360 816
WIRE -1072 1040 -1120 1040
WIRE -928 1040 -992 1040
WIRE -704 1040 -928 1040
WIRE -688 1040 -704 1040
WIRE -592 1040 -688 1040
WIRE -496 1040 -496 976
WIRE 656 1040 656 832
WIRE 816 1040 816 848
WIRE 1008 1040 1008 816
WIRE 1168 1040 1168 832
WIRE 1568 1040 1568 848
WIRE 1776 1040 1776 816
WIRE -704 1056 -704 1040
WIRE -688 1056 -688 1040
WIRE 480 1056 480 848
WIRE -784 1072 -848 1072
WIRE -768 1072 -784 1072
WIRE -1120 1088 -1120 1040
WIRE -848 1088 -848 1072
WIRE -928 1136 -928 1040
WIRE -880 1136 -928 1136
WIRE -864 1136 -880 1136
WIRE 480 1136 480 1056
WIRE 656 1136 656 1040
WIRE 816 1136 816 1040
WIRE 1008 1136 1008 1040
WIRE 1168 1136 1168 1040
WIRE 1360 1136 1360 1024
WIRE 1568 1136 1568 1040
WIRE 1776 1136 1776 1040
WIRE -704 1168 -704 1120
WIRE -704 1168 -736 1168
WIRE -672 1168 -704 1168
WIRE -544 1168 -544 1104
WIRE -544 1168 -592 1168
WIRE -1216 1200 -1296 1200
WIRE -1088 1200 -1136 1200
WIRE -880 1200 -1088 1200
WIRE -1296 1248 -1296 1200
WIRE 480 1264 480 1216
WIRE 656 1264 656 1216
WIRE 816 1264 816 1216
WIRE 1008 1264 1008 1216
WIRE 1168 1264 1168 1216
WIRE 1360 1264 1360 1216
WIRE 1568 1264 1568 1216
WIRE 1776 1264 1776 1216
WIRE -1088 1296 -1088 1200
WIRE -848 1296 -848 1248
WIRE -1296 1408 -1296 1328
WIRE -1088 1424 -1088 1376
FLAG -1280 272 0
FLAG -1088 -400 0
FLAG -1088 -560 Vcc
FLAG -432 -224 0
FLAG 320 176 0
FLAG 1184 -288 Out_2
FLAG 1200 224 Out_6
FLAG 1632 -288 Out_3
FLAG 2064 -352 Out_4
FLAG 1648 224 Out_7
FLAG 2080 208 Out_8
FLAG 768 208 Out_5
FLAG 720 -240 Out_1
FLAG 320 -224 TstPls
FLAG 1072 16 TSTPls
FLAG 1072 -480 Vcc
FLAG 752 80 Vcc
FLAG 896 -432 TSTPls
FLAG 480 1264 0
FLAG 480 736 Out_1
FLAG 656 1264 0
FLAG 816 1264 0
FLAG 1008 1264 0
FLAG 1168 1264 0
FLAG 1360 1264 0
FLAG 1568 1264 0
FLAG 1776 1264 0
FLAG 656 736 Out_2
FLAG 816 736 Out_3
FLAG 1008 736 Out_4
FLAG 1168 736 Out_5
FLAG 1360 736 Out_6
FLAG 1568 736 Out_7
FLAG 1776 736 Out_8
FLAG -752 176 0
FLAG 1952 -32 0
FLAG 1968 496 0
FLAG 304 400 0
FLAG 688 -352 0
FLAG -112 -320 0
FLAG 480 1056 PMT_1
FLAG 656 1040 PMT_2
FLAG 816 1040 PMT_3
FLAG 1008 1040 PMT_4
FLAG 1168 1040 PMT_5
FLAG 1360 1024 PMT_6
FLAG 1568 1040 PMT_7
FLAG 1776 1040 PMT_8
FLAG 432 944 0
FLAG -336 -112 Vcc
FLAG 176 224 0
FLAG -464 -432 Vcc
FLAG -1280 784 0
FLAG -48 944 0
FLAG -1120 1088 0
FLAG -1296 1408 0
FLAG -848 1296 0
FLAG -784 1072 Vcc
FLAG -1088 1424 0
DATAFLAG -224 336 ""
DATAFLAG -656 80 ""
DATAFLAG 144 96 ""
SYMBOL res -1104 64 R90
WINDOW 0 0 56 VBottom 2
WINDOW 3 32 56 VTop 2
SYMATTR InstName R1
SYMATTR Value 50
SYMBOL xnpn -400 32 R0
WINDOW 0 115 6 Left 2
WINDOW 3 109 99 Left 2
SYMATTR InstName U2
SYMATTR Value Bfu730f
SYMBOL res -224 -384 M0
WINDOW 0 42 -17 Left 2
WINDOW 3 40 24 Left 2
SYMATTR InstName R4
SYMATTR Value 80
SYMBOL voltage -1280 128 R0
WINDOW 3 19 119 Left 2
WINDOW 123 0 0 Left 2
WINDOW 39 0 0 Left 2
SYMATTR Value PULSE(3.3 0 10n 1n 1n 100n)
SYMATTR Value2 ""
SYMATTR SpiceLine ""
SYMATTR InstName V1
SYMBOL res -784 64 R90
WINDOW 0 0 56 VBottom 2
WINDOW 3 32 56 VTop 2
SYMATTR InstName R8
SYMATTR Value 2k
SYMBOL res -592 736 R180
WINDOW 0 36 76 Left 2
WINDOW 3 36 40 Left 2
SYMATTR InstName R9
SYMATTR Value 200
SYMBOL ind -624 448 R0
SYMATTR InstName L1
SYMATTR Value 5n
SYMBOL voltage -1088 -528 R0
WINDOW 123 0 0 Left 2
WINDOW 39 0 0 Left 2
SYMATTR Value2 ""
SYMATTR SpiceLine ""
SYMATTR InstName V2
SYMATTR Value 5
SYMBOL cap -272 -272 R90
WINDOW 0 0 32 VBottom 2
WINDOW 3 32 32 VTop 2
SYMATTR InstName Cs1
SYMATTR Value {Cs}
SYMBOL cap 240 -192 R90
WINDOW 0 0 32 VBottom 2
WINDOW 3 32 32 VTop 2
SYMATTR InstName C1
SYMATTR Value 40p
SYMBOL res 304 -112 R0
SYMATTR InstName R3
SYMATTR Value 50
SYMBOL res 512 -208 R90
WINDOW 0 -12 58 VBottom 2
WINDOW 3 32 56 VTop 2
SYMATTR InstName R5
SYMATTR Value 200
SYMBOL res 560 -352 R0
SYMATTR InstName R6
SYMATTR Value {p_ef}
SYMBOL xpnp 512 -144 M180
WINDOW 3 84 -14 Left 2
SYMATTR Value HFAPNP
SYMATTR InstName U1
SYMBOL voltage 320 32 R0
SYMATTR InstName Voffs
SYMATTR Value 1
SYMBOL res 576 240 R90
WINDOW 0 -12 58 VBottom 2
WINDOW 3 32 56 VTop 2
SYMATTR InstName R7
SYMATTR Value 200
SYMBOL res 624 96 R0
SYMATTR InstName R10
SYMATTR Value {p_ef}
SYMBOL xpnp 576 304 M180
WINDOW 3 84 -14 Left 2
SYMATTR Value HFAPNP
SYMATTR InstName U3
SYMBOL res 992 -256 R90
WINDOW 0 -12 58 VBottom 2
WINDOW 3 32 56 VTop 2
SYMATTR InstName R11
SYMATTR Value 200
SYMBOL res 1040 -400 R0
SYMATTR InstName R12
SYMATTR Value {p_ef}
SYMBOL xpnp 992 -192 M180
WINDOW 3 84 -14 Left 2
SYMATTR Value HFAPNP
SYMATTR InstName U4
SYMBOL res 1008 256 R90
WINDOW 0 -12 58 VBottom 2
WINDOW 3 32 56 VTop 2
SYMATTR InstName R13
SYMATTR Value 200
SYMBOL res 1056 112 R0
SYMATTR InstName R14
SYMATTR Value {p_ef}
SYMBOL xpnp 1008 320 M180
WINDOW 3 84 -14 Left 2
SYMATTR Value HFAPNP
SYMATTR InstName U5
SYMBOL res 1440 -256 R90
WINDOW 0 -12 58 VBottom 2
WINDOW 3 32 56 VTop 2
SYMATTR InstName R15
SYMATTR Value 200
SYMBOL res 1488 -400 R0
SYMATTR InstName R16
SYMATTR Value {p_ef}
SYMBOL xpnp 1440 -192 M180
WINDOW 3 84 -14 Left 2
SYMATTR Value HFAPNP
SYMATTR InstName U6
SYMBOL res 1456 256 R90
WINDOW 0 -12 58 VBottom 2
WINDOW 3 32 56 VTop 2
SYMATTR InstName R17
SYMATTR Value 200
SYMBOL res 1504 112 R0
SYMATTR InstName R18
SYMATTR Value {p_ef}
SYMBOL xpnp 1456 320 M180
WINDOW 3 84 -14 Left 2
SYMATTR Value HFAPNP
SYMATTR InstName U7
SYMBOL res 1872 -320 R90
WINDOW 0 -12 58 VBottom 2
WINDOW 3 32 56 VTop 2
SYMATTR InstName R19
SYMATTR Value 200
SYMBOL res 1920 -464 R0
SYMATTR InstName R20
SYMATTR Value {p_ef}
SYMBOL xpnp 1872 -256 M180
WINDOW 3 84 -14 Left 2
SYMATTR Value HFAPNP
SYMATTR InstName U8
SYMBOL res 1888 240 R90
WINDOW 0 -12 58 VBottom 2
WINDOW 3 32 56 VTop 2
SYMATTR InstName R21
SYMATTR Value 200
SYMBOL res 1936 96 R0
SYMATTR InstName R22
SYMATTR Value {p_ef}
SYMBOL xpnp 1888 304 M180
WINDOW 3 84 -14 Left 2
SYMATTR Value HFAPNP
SYMATTR InstName U9
SYMBOL res 464 1120 R0
SYMATTR InstName R23
SYMATTR Value 50
SYMBOL res 640 1120 R0
SYMATTR InstName R24
SYMATTR Value 50
SYMBOL res 800 1120 R0
SYMATTR InstName R25
SYMATTR Value 50
SYMBOL res 992 1120 R0
SYMATTR InstName R26
SYMATTR Value 50
SYMBOL res 1152 1120 R0
SYMATTR InstName R27
SYMATTR Value 50
SYMBOL res 1344 1120 R0
SYMATTR InstName R28
SYMATTR Value 50
SYMBOL res 1552 1120 R0
SYMATTR InstName R29
SYMATTR Value 50
SYMBOL res 1760 1120 R0
SYMATTR InstName R30
SYMATTR Value 50
SYMBOL cap 464 784 R0
SYMATTR InstName CPMT_1
SYMATTR Value .1µ
SYMBOL cap 640 768 R0
SYMATTR InstName CPMT_2
SYMATTR Value .1µ
SYMBOL cap 800 784 R0
SYMATTR InstName CPMT_3
SYMATTR Value .1µ
SYMBOL cap 992 752 R0
SYMATTR InstName CPMT_4
SYMATTR Value .1µ
SYMBOL cap 1152 768 R0
SYMATTR InstName CPMT_5
SYMATTR Value .1µ
SYMBOL cap 1344 752 R0
SYMATTR InstName CPMT_6
SYMATTR Value .1µ
SYMBOL cap 1552 784 R0
SYMATTR InstName CPMT_7
SYMATTR Value .1µ
SYMBOL cap 1760 752 R0
SYMATTR InstName CPMT_8
SYMATTR Value .1µ
SYMBOL cap -640 128 R90
WINDOW 0 0 32 VBottom 2
WINDOW 3 32 32 VTop 2
SYMATTR InstName Cs2
SYMATTR Value {Cs}
SYMBOL cap 416 352 R90
WINDOW 0 0 32 VBottom 2
WINDOW 3 32 32 VTop 2
SYMATTR InstName Cs3
SYMATTR Value {Cs}
SYMBOL cap 800 -400 R90
WINDOW 0 0 32 VBottom 2
WINDOW 3 32 32 VTop 2
SYMATTR InstName Cs4
SYMATTR Value {Cs}
SYMBOL cap -128 -416 R0
SYMATTR InstName Cseveral
SYMATTR Value 2.2µF
SYMBOL res -336 -448 R90
WINDOW 0 0 56 VBottom 2
WINDOW 3 32 56 VTop 2
SYMATTR InstName Rseries
SYMATTR Value 3
SYMBOL res -400 64 R90
WINDOW 0 0 56 VBottom 2
WINDOW 3 32 56 VTop 2
SYMATTR InstName R33
SYMATTR Value 200
SYMBOL xnpn -16 80 M0
WINDOW 0 115 6 Left 2
WINDOW 3 109 99 Left 2
SYMATTR InstName U10
SYMATTR Value Bfu730f
SYMBOL res 144 752 R180
WINDOW 0 36 76 Left 2
WINDOW 3 36 40 Left 2
SYMATTR InstName R34
SYMATTR Value 200
SYMBOL res -112 -64 M0
WINDOW 0 42 -17 Left 2
WINDOW 3 40 24 Left 2
SYMATTR InstName R36
SYMATTR Value 1
SYMBOL cap 160 128 R0
SYMATTR InstName C4
SYMATTR Value {Cs}
SYMBOL res 128 112 R90
WINDOW 0 0 56 VBottom 2
WINDOW 3 32 56 VTop 2
SYMATTR InstName R31
SYMATTR Value 200
SYMBOL res -1104 576 R90
WINDOW 0 0 56 VBottom 2
WINDOW 3 32 56 VTop 2
SYMATTR InstName R32
SYMATTR Value 50
SYMBOL res -784 576 R90
WINDOW 0 0 56 VBottom 2
WINDOW 3 32 56 VTop 2
SYMATTR InstName R37
SYMATTR Value 2k
SYMBOL voltage -1280 640 R0
WINDOW 3 19 119 Left 2
WINDOW 123 0 0 Left 2
WINDOW 39 0 0 Left 2
SYMATTR Value PULSE(0 3.3 10n 1n 1n 100n)
SYMATTR Value2 ""
SYMATTR SpiceLine ""
SYMATTR InstName V3
SYMBOL voltage -48 800 R0
WINDOW 123 0 0 Left 2
WINDOW 39 0 0 Left 2
SYMATTR Value2 ""
SYMATTR SpiceLine ""
SYMATTR InstName Voffs2
SYMATTR Value 2.5
SYMBOL ind -352 416 R0
SYMATTR InstName L2
SYMATTR Value 20µ
SYMBOL res -352 160 R0
SYMATTR InstName R40
SYMATTR Value 15
SYMBOL res -96 192 R0
SYMATTR InstName R41
SYMATTR Value 15
SYMBOL ind 112 448 R0
SYMATTR InstName L3
SYMATTR Value 5n
SYMBOL Opamps\\LTC2051 -848 1168 R0
WINDOW 3 44 112 Left 2
SYMATTR InstName U12
SYMBOL res -576 1152 R90
WINDOW 0 0 56 VBottom 2
WINDOW 3 32 56 VTop 2
SYMATTR InstName R39
SYMATTR Value 111
SYMBOL voltage -1296 1232 R0
WINDOW 123 0 0 Left 2
WINDOW 39 0 0 Left 2
SYMATTR Value2 ""
SYMATTR SpiceLine ""
SYMATTR InstName V5
SYMATTR Value {setcur}
SYMBOL res -976 1024 R90
WINDOW 0 0 56 VBottom 2
WINDOW 3 32 56 VTop 2
SYMATTR InstName R42
SYMATTR Value 33
SYMBOL cap -720 1056 R0
SYMATTR InstName C3
SYMATTR Value 2p
SYMBOL res -1120 1184 R90
WINDOW 0 0 56 VBottom 2
WINDOW 3 32 56 VTop 2
SYMATTR InstName R43
SYMATTR Value 1.8k
SYMBOL res -1104 1280 R0
SYMATTR InstName R44
SYMATTR Value 200
SYMBOL xnpn -496 1104 M270
WINDOW 0 115 6 Left 2
WINDOW 3 109 99 Left 2
SYMATTR InstName U11
SYMATTR Value BFR182
TEXT -1208 336 Left 2 !.inc BFU730F.PRM
TEXT -80 -528 Left 2 !.tran 0 150n 0
TEXT -1208 392 Left 2 !.inc BAS70.prm
TEXT -712 -512 Left 2 !.param     Cs =1p
TEXT -1192 440 Left 2 !.inc HFAPNP.sub
TEXT 712 592 Left 4 ;Jumper  Out_n    to  enable output selection
TEXT 944 -568 Left 4 ;HFA3128  comes in arrays of  5 transistors each
TEXT 24 816 Left 4 ;CSn   = Cstray n
TEXT -1232 824 Left 2 ;.step param  Iref  1m 20m
TEXT 1064 -720 Left 2 !.param p_ef = 250
TEXT -1304 888 Left 2 ;.step param setcur  1 4 .5
TEXT -1200 496 Left 2 !.inc bfr182.sub
TEXT 328 1336 Left 2 ;These are the  cables to the  board under test.  The  50 ohm loads are not on the pulser board
TEXT -1304 936 Left 2 !.param setcur 2.5
RECTANGLE Normal 2000 1296 304 896 2
CIRCLE Normal 448 912 416 880
CIRCLE Normal 496 912 464 880
